units(length='cm', time='s', quantity='mol', act_energy='cal/mol')

ideal_gas(name='gas',
          elements="H C O N",
          species="""nc7h16   o2       n2       co2      h2o      
                     h        h2       o        n        oh       
                     co       no       h2o2     ho2      ch3o     
                     ch2o     hco      ch2      ch3      ch4      
                     c2h3     c2h4     c2h5     c3h4     c3h5     
                     c3h6     c3h7     c7h15-2  c7h15o2  c7ket12  
                     c5h11co  """,
          reactions='all',
          initial_state=state(temperature=300.0, pressure=OneAtm))

#-------------------------------------------------------------------------------
# Species data
#-------------------------------------------------------------------------------

#Parte agregada del GRIMECH-3.0
species(name='no',
        atoms='O:1 N:1',
        thermo=(NASA([200.00, 1000.00],
                     [ 4.21847630E+00, -4.63897600E-03,  1.10410220E-05,
                      -9.33613540E-09,  2.80357700E-12,  9.84462300E+03,
                       2.28084640E+00]),
                NASA([1000.00, 6000.00],
                     [ 3.26060560E+00,  1.19110430E-03, -4.29170480E-07,
                       6.94576690E-11, -4.03360990E-15,  9.92097460E+03,
                       6.36930270E+00])),
        transport=gas_transport(geom='linear',
                                diam=3.621,
                                well_depth=97.53,
                                polar=1.76,
                                rot_relax=4.0),
        note='RUS78')


species(name='n',
        atoms='N:1',
        thermo=(NASA([200.00, 1000.00],
                     [ 2.50000000E+00,  0.00000000E+00,  0.00000000E+00,
                       0.00000000E+00,  0.00000000E+00,  5.61046370E+04,
                       4.19390870E+00]),
                NASA([1000.00, 6000.00],
                     [ 2.41594290E+00,  1.74890650E-04, -1.19023690E-07,
                       3.02262450E-11, -2.03609820E-15,  5.61337730E+04,
                       4.64960960E+00])),
        transport=gas_transport(geom='atom',
                                diam=3.298,
                                well_depth=71.4),
        note='L6/88')
#
species(name='nc7h16',
        atoms='H:16 C:7',
        thermo=(NASA([300.00, 1391.00],
                     [-1.26836187E+00,  8.54355820E-02, -5.25346786E-05,
                       1.62945721E-08, -2.02394925E-12, -2.56586565E+04,
                       3.53732912E+01]),
                NASA([1391.00, 5000.00],
                     [ 2.22148969E+01,  3.47675750E-02, -1.18407129E-05,
                       1.83298478E-09, -1.06130266E-13, -3.42760081E+04,
                      -9.23040196E+01])),
        note='2/10/95')

species(name='o2',
        atoms='O:2',
        thermo=(NASA([300.00, 1000.00],
                     [ 3.21293600E+00,  1.12748600E-03, -5.75615000E-07,
                       1.31387700E-09, -8.76855400E-13, -1.00524900E+03,
                       6.03473800E+00]),
                NASA([1000.00, 5000.00],
                     [ 3.69757800E+00,  6.13519700E-04, -1.25884200E-07,
                       1.77528100E-11, -1.13643500E-15, -1.23393000E+03,
                       3.18916600E+00])),
        note='121386')

species(name='n2',
        atoms='N:2',
        thermo=(NASA([300.00, 1000.00],
                     [ 3.29867700E+00,  1.40824000E-03, -3.96322200E-06,
                       5.64151500E-09, -2.44485500E-12, -1.02090000E+03,
                       3.95037200E+00]),
                NASA([1000.00, 5000.00],
                     [ 2.92664000E+00,  1.48797700E-03, -5.68476100E-07,
                       1.00970400E-10, -6.75335100E-15, -9.22797700E+02,
                       5.98052800E+00])),
        note='121286')

species(name='co2',
        atoms='C:1 O:2',
        thermo=(NASA([300.00, 1000.00],
                     [ 2.27572500E+00,  9.92207200E-03, -1.04091100E-05,
                       6.86668700E-09, -2.11728000E-12, -4.83731400E+04,
                       1.01884900E+01]),
                NASA([1000.00, 5000.00],
                     [ 4.45362300E+00,  3.14016900E-03, -1.27841100E-06,
                       2.39399700E-10, -1.66903300E-14, -4.89669600E+04,
                      -9.55395900E-01])),
        note='121286')

species(name='h2o',
        atoms='H:2 O:1',
        thermo=(NASA([300.00, 1000.00],
                     [ 3.38684200E+00,  3.47498200E-03, -6.35469600E-06,
                       6.96858100E-09, -2.50658800E-12, -3.02081100E+04,
                       2.59023300E+00]),
                NASA([1000.00, 5000.00],
                     [ 2.67214600E+00,  3.05629300E-03, -8.73026000E-07,
                       1.20099600E-10, -6.39161800E-15, -2.98992100E+04,
                       6.86281700E+00])),
        note='20387')

species(name='co',
        atoms='C:1 O:1',
        thermo=(NASA([300.00, 1000.00],
                     [ 3.26245200E+00,  1.51194100E-03, -3.88175500E-06,
                       5.58194400E-09, -2.47495100E-12, -1.43105400E+04,
                       4.84889700E+00]),
                NASA([1000.00, 5000.00],
                     [ 3.02507800E+00,  1.44268900E-03, -5.63082800E-07,
                       1.01858100E-10, -6.91095200E-15, -1.42683500E+04,
                       6.10821800E+00])),
        note='121286')

species(name='h2',
        atoms='H:2',
        thermo=(NASA([300.00, 1000.00],
                     [ 3.29812400E+00,  8.24944200E-04, -8.14301500E-07,
                      -9.47543400E-11,  4.13487200E-13, -1.01252100E+03,
                      -3.29409400E+00]),
                NASA([1000.00, 5000.00],
                     [ 2.99142300E+00,  7.00064400E-04, -5.63382900E-08,
                      -9.23157800E-12,  1.58275200E-15, -8.35034000E+02,
                      -1.35511000E+00])),
        note='121286')

species(name='oh',
        atoms='H:1 O:1',
        thermo=(NASA([300.00, 1000.00],
                     [ 3.63726600E+00,  1.85091000E-04, -1.67616500E-06,
                       2.38720300E-09, -8.43144200E-13,  3.60678200E+03,
                       1.35886000E+00]),
                NASA([1000.00, 5000.00],
                     [ 2.88273000E+00,  1.01397400E-03, -2.27687700E-07,
                       2.17468400E-11, -5.12630500E-16,  3.88688800E+03,
                       5.59571200E+00])),
        note='121286')

species(name='h2o2',
        atoms='H:2 O:2',
        thermo=(NASA([300.00, 1000.00],
                     [ 3.38875400E+00,  6.56922600E-03, -1.48501300E-07,
                      -4.62580600E-09,  2.47151500E-12, -1.76631500E+04,
                       6.78536300E+00]),
                NASA([1000.00, 5000.00],
                     [ 4.57316700E+00,  4.33613600E-03, -1.47468900E-06,
                       2.34890400E-10, -1.43165400E-14, -1.80069600E+04,
                       5.01137000E-01])),
        note='120186')

species(name='ho2',
        atoms='H:1 O:2',
        thermo=(NASA([300.00, 1000.00],
                     [ 2.97996300E+00,  4.99669700E-03, -3.79099700E-06,
                       2.35419200E-09, -8.08902400E-13,  1.76227400E+02,
                       9.22272400E+00]),
                NASA([1000.00, 5000.00],
                     [ 4.07219100E+00,  2.13129600E-03, -5.30814500E-07,
                       6.11226900E-11, -2.84116500E-15, -1.57972700E+02,
                       3.47602900E+00])),
        note='20387')

species(name='h',
        atoms='H:1',
        thermo=(NASA([300.00, 1000.00],
                     [ 2.50000000E+00,  0.00000000E+00,  0.00000000E+00,
                       0.00000000E+00,  0.00000000E+00,  2.54716300E+04,
                      -4.60117600E-01]),
                NASA([1000.00, 5000.00],
                     [ 2.50000000E+00,  0.00000000E+00,  0.00000000E+00,
                       0.00000000E+00,  0.00000000E+00,  2.54716300E+04,
                      -4.60117600E-01])),
        note='120186')

species(name='o',
        atoms='O:1',
        thermo=(NASA([300.00, 1000.00],
                     [ 2.94642900E+00, -1.63816600E-03,  2.42103200E-06,
                      -1.60284300E-09,  3.89069600E-13,  2.91476400E+04,
                       2.96399500E+00]),
                NASA([1000.00, 5000.00],
                     [ 2.54206000E+00, -2.75506200E-05, -3.10280300E-09,
                       4.55106700E-12, -4.36805200E-16,  2.92308000E+04,
                       4.92030800E+00])),
        note='120186')

species(name='ch3o',
        atoms='H:3 C:1 O:1',
        thermo=(NASA([300.00, 1000.00],
                     [ 2.10620400E+00,  7.21659500E-03,  5.33847200E-06,
                      -7.37763600E-09,  2.07561100E-12,  9.78601100E+02,
                       1.31521800E+01]),
                NASA([1000.00, 3000.00],
                     [ 3.77080000E+00,  7.87149700E-03, -2.65638400E-06,
                       3.94443100E-10, -2.11261600E-14,  1.27832500E+02,
                       2.92957500E+00])),
        note='121686')

species(name='ch2o',
        atoms='H:2 C:1 O:1',
        thermo=(NASA([300.00, 1000.00],
                     [ 1.65273100E+00,  1.26314400E-02, -1.88816800E-05,
                       2.05003100E-08, -8.41323700E-12, -1.48654000E+04,
                       1.37848200E+01]),
                NASA([1000.00, 5000.00],
                     [ 2.99560600E+00,  6.68132100E-03, -2.62895500E-06,
                       4.73715300E-10, -3.21251700E-14, -1.53203700E+04,
                       6.91257200E+00])),
        note='121286')

species(name='hco',
        atoms='H:1 C:1 O:1',
        thermo=(NASA([300.00, 1000.00],
                     [ 2.89833000E+00,  6.19914700E-03, -9.62308400E-06,
                       1.08982500E-08, -4.57488500E-12,  4.15992200E+03,
                       8.98361400E+00]),
                NASA([1000.00, 5000.00],
                     [ 3.55727100E+00,  3.34557300E-03, -1.33500600E-06,
                       2.47057300E-10, -1.71385100E-14,  3.91632400E+03,
                       5.55229900E+00])),
        note='121286')

species(name='ch2',
        atoms='H:2 C:1',
        thermo=(NASA([250.00, 1000.00],
                     [ 3.76223700E+00,  1.15981900E-03,  2.48958500E-07,
                       8.80083600E-10, -7.33243500E-13,  4.53679100E+04,
                       1.71257800E+00]),
                NASA([1000.00, 4000.00],
                     [ 3.63640800E+00,  1.93305700E-03, -1.68701600E-07,
                      -1.00989900E-10,  1.80825600E-14,  4.53413400E+04,
                       2.15656100E+00])),
        note='120186')

species(name='ch3',
        atoms='H:3 C:1',
        thermo=(NASA([300.00, 1000.00],
                     [ 2.43044300E+00,  1.11241000E-02, -1.68022000E-05,
                       1.62182900E-08, -5.86495300E-12,  1.64237800E+04,
                       6.78979400E+00]),
                NASA([1000.00, 5000.00],
                     [ 2.84405200E+00,  6.13797400E-03, -2.23034500E-06,
                       3.78516100E-10, -2.45215900E-14,  1.64378100E+04,
                       5.45269700E+00])),
        note='121286')

species(name='ch4',
        atoms='H:4 C:1',
        thermo=(NASA([300.00, 1000.00],
                     [ 7.78741500E-01,  1.74766800E-02, -2.78340900E-05,
                       3.04970800E-08, -1.22393100E-11, -9.82522900E+03,
                       1.37221900E+01]),
                NASA([1000.00, 5000.00],
                     [ 1.68347900E+00,  1.02372400E-02, -3.87512900E-06,
                       6.78558500E-10, -4.50342300E-14, -1.00807900E+04,
                       9.62339500E+00])),
        note='121286')

species(name='c2h3',
        atoms='H:3 C:2',
        thermo=(NASA([300.00, 1000.00],
                     [ 2.45927600E+00,  7.37147600E-03,  2.10987300E-06,
                      -1.32164200E-09, -1.18478400E-12,  3.33522500E+04,
                       1.15562000E+01]),
                NASA([1000.00, 5000.00],
                     [ 5.93346800E+00,  4.01774600E-03, -3.96674000E-07,
                      -1.44126700E-10,  2.37864400E-14,  3.18543500E+04,
                      -8.53031300E+00])),
        note='12787')

species(name='c2h4',
        atoms='H:4 C:2',
        thermo=(NASA([300.00, 1000.00],
                     [-8.61488000E-01,  2.79616300E-02, -3.38867700E-05,
                       2.78515200E-08, -9.73787900E-12,  5.57304600E+03,
                       2.42114900E+01]),
                NASA([1000.00, 5000.00],
                     [ 3.52841900E+00,  1.14851800E-02, -4.41838500E-06,
                       7.84460100E-10, -5.26684800E-14,  4.42828900E+03,
                       2.23038900E+00])),
        note='121286')

species(name='c2h5',
        atoms='H:5 C:2',
        thermo=(NASA([300.00, 1000.00],
                     [ 2.69070200E+00,  8.71913300E-03,  4.41983900E-06,
                       9.33870300E-10, -3.92777300E-12,  1.28704000E+04,
                       1.21382000E+01]),
                NASA([1000.00, 5000.00],
                     [ 7.19048000E+00,  6.48407700E-03, -6.42806500E-07,
                      -2.34787900E-10,  3.88087700E-14,  1.06745500E+04,
                      -1.47808900E+01])),
        note='12387')

species(name='c3h4',
        atoms='H:4 C:3',
        thermo=(NASA([200.00, 1000.00],
                     [ 2.61307487E+00,  1.21223371E-02,  1.85405400E-05,
                      -3.45258475E-08,  1.53353389E-11,  2.15415642E+04,
                       1.02503319E+01]),
                NASA([1000.00, 6000.00],
                     [ 6.31694869E+00,  1.11336262E-02, -3.96289018E-06,
                       6.35633775E-10, -3.78749885E-14,  2.01174617E+04,
                      -1.09718862E+01])),
        note='l12/92')

species(name='c3h5',
        atoms='H:5 C:3',
        thermo=(NASA([200.00, 1000.00],
                     [ 3.78794693E+00,  9.48414335E-03,  2.42343368E-05,
                      -3.65604010E-08,  1.48592356E-11,  1.86261218E+04,
                       7.82822499E+00]),
                NASA([1000.00, 6000.00],
                     [ 6.54761132E+00,  1.33152246E-02, -4.78333100E-06,
                       7.71949814E-10, -4.61930808E-14,  1.72714707E+04,
                      -9.27486841E+00])),
        note='bur92')

species(name='c3h6',
        atoms='H:6 C:3',
        thermo=(NASA([300.00, 1388.00],
                     [ 3.94615444E-01,  2.89107662E-02, -1.54886808E-05,
                       3.88814209E-09, -3.37890352E-13,  1.06688164E+03,
                       2.19003736E+01]),
                NASA([1388.00, 5000.00],
                     [ 8.01595958E+00,  1.37023634E-02, -4.66249733E-06,
                       7.21254402E-10, -4.17370126E-14, -1.87821271E+03,
                      -2.00160668E+01])),
        note='5/27/97therm')

species(name='c3h7',
        atoms='H:7 C:3',
        thermo=(NASA([300.00, 1000.00],
                     [ 1.05155180E+00,  2.59919800E-02,  2.38005400E-06,
                      -1.96095690E-08,  9.37324700E-12,  1.06318630E+04,
                       2.11225590E+01]),
                NASA([1000.00, 5000.00],
                     [ 7.70269870E+00,  1.60442030E-02, -5.28332200E-06,
                       7.62985900E-10, -3.93922840E-14,  8.29843360E+03,
                      -1.54801800E+01])),
        note='n-l9/84')

species(name='c7h15-2',
        atoms='H:15 C:7',
        thermo=(NASA([300.00, 1382.00],
                     [-3.79155767E-02,  7.56726570E-02, -4.07473634E-05,
                       9.32678943E-09, -4.92360745E-13, -2.35605303E+03,
                       3.37321506E+01]),
                NASA([1382.00, 5000.00],
                     [ 2.16368842E+01,  3.23324804E-02, -1.09273807E-05,
                       1.68357060E-09, -9.71774091E-14, -1.05873616E+04,
                      -8.52209653E+01])),
        note='2/10/95')

species(name='c7h15o2',
        atoms='H:15 C:7 O:2',
        thermo=(NASA([300.00, 1390.00],
                     [ 2.37499334E+00,  8.34651906E-02, -5.13897320E-05,
                       1.64217662E-08, -2.19505216E-12, -1.99237961E+04,
                       2.53067342E+01]),
                NASA([1390.00, 5000.00],
                     [ 2.49023689E+01,  3.50716920E-02, -1.20440306E-05,
                       1.87464822E-09, -1.08947791E-13, -2.82976050E+04,
                      -9.73923542E+01])),
        note='7/23/98')

species(name='c7ket12',
        atoms='H:14 C:7 O:3',
        thermo=(NASA([300.00, 1396.00],
                     [ 5.82433697E-01,  1.01207869E-01, -7.65855996E-05,
                       3.00738606E-08, -4.82902792E-12, -4.68054419E+04,
                       3.33331449E+01]),
                NASA([1396.00, 5000.00],
                     [ 2.97472906E+01,  3.06622294E-02, -1.05563590E-05,
                       1.64627343E-09, -9.58171675E-14, -5.66856828E+04,
                      -1.22432490E+02])),
        note='7/23/98')

species(name='c5h11co',
        atoms='H:11 C:6 O:1',
        thermo=(NASA([300.00, 1383.00],
                     [ 2.14479069E+00,  6.17863563E-02, -3.74134690E-05,
                       1.13283795E-08, -1.36917698E-12, -1.43451172E+04,
                       2.23128045E+01]),
                NASA([1383.00, 5000.00],
                     [ 1.94783812E+01,  2.50466029E-02, -8.54861346E-06,
                       1.32557944E-09, -7.68503296E-14, -2.07923937E+04,
                      -7.21995578E+01])),
        note='2/29/96')

#-------------------------------------------------------------------------------
# Reaction data
#-------------------------------------------------------------------------------

# Reaction 1
reaction('nc7h16 + h <=> c7h15-2 + h2', [4.380000e+07, 2.0, 4760.0])

# Reaction 2
reaction('nc7h16 + oh <=> c7h15-2 + h2o', [9.700000e+09, 1.3, 1690.0])

# Reaction 3
reaction('nc7h16 + ho2 <=> c7h15-2 + h2o2', [1.650000e+13, 0.0, 16950.0])

# Reaction 4
reaction('nc7h16 + o2 <=> c7h15-2 + ho2', [2.000000e+15, 0.0, 47380.0])

# Reaction 5
reaction('c7h15-2 + o2 <=> c7h15o2', [1.560000e+12, 0.0, 0.0])

# Reaction 6
reaction('c7h15o2 + o2 <=> c7ket12 + oh', [4.500000e+14, 0.0, 18232.712])

# Reaction 7
reaction('c7ket12 <=> c5h11co + ch2o + oh', [9.530000e+14, 0.0, 41100.0])

# Reaction 8
reaction('c5h11co <=> c2h4 + c3h7 + co', [9.840000e+15, 0.0, 40200.0])

# Reaction 9
reaction('c7h15-2 <=> c2h5 + c2h4 + c3h6', [7.045000e+14, 0.0, 34600.0])

# Reaction 10
reaction('c3h7 <=> c2h4 + ch3', [9.600000e+13, 0.0, 30950.0])

# Reaction 11
reaction('c3h7 <=> c3h6 + h', [1.250000e+14, 0.0, 36900.0])

# Reaction 12
reaction('c3h6 + ch3 <=> c3h5 + ch4', [9.000000e+12, 0.0, 8480.0])

# Reaction 13
reaction('c3h5 + o2 <=> c3h4 + ho2', [6.000000e+11, 0.0, 10000.0])

# Reaction 14
reaction('c3h4 + oh <=> c2h3 + ch2o', [1.000000e+12, 0.0, 0.0])

# Reaction 15
reaction('c3h4 + oh <=> c2h4 + hco', [1.000000e+12, 0.0, 0.0])

# Reaction 16
reaction('ch3 + ho2 <=> ch3o + oh', [5.000000e+13, 0.0, 0.0])

# Reaction 17
reaction('ch3 + oh <=> ch2 + h2o', [7.500000e+06, 2.0, 5000.0])

# Reaction 18
reaction('ch2 + oh <=> ch2o + h', [2.500000e+13, 0.0, 0.0])

# Reaction 19
reaction('ch2 + o2 <=> hco + oh', [4.300000e+10, 0.0, -500.0])

# Reaction 20
reaction('ch2 + o2 <=> co2 + h2', [6.900000e+11, 0.0, 500.0])

# Reaction 21
reaction('ch2 + o2 <=> co + h2o', [2.000000e+10, 0.0, -1000.0])

# Reaction 22
reaction('ch2 + o2 <=> ch2o + o', [5.000000e+13, 0.0, 9000.0])

# Reaction 23
reaction('ch2 + o2 <=> co2 + h + h', [1.600000e+12, 0.0, 1000.0])

# Reaction 24
reaction('ch2 + o2 <=> co + oh + h', [8.600000e+10, 0.0, -500.0])

# Reaction 25
reaction('ch3o + co <=> ch3 + co2', [1.570000e+14, 0.0, 11800.0])

# Reaction 26
reaction('co + oh <=> co2 + h', [8.987000e+07, 1.38, 5232.877])

# Reaction 27
reaction('o + oh <=> o2 + h', [4.000000e+14, -0.5, 0.0])

# Reaction 28
reaction('h + ho2 <=> oh + oh', [1.700000e+14, 0.0, 875.0])

# Reaction 29
reaction('oh + oh <=> o + h2o', [6.000000e+08, 1.3, 0.0])

# Reaction 30
three_body_reaction('h + o2 + M <=> ho2 + M', [3.600000e+17, -0.72, 0.0],
                    efficiencies='h2:3.3 h2o:21.0 co2:5.0 co:2.0')

# Reaction 31
three_body_reaction('h2o2 + M <=> oh + oh + M', [1.000000e+16, 0.0, 45500.0],
                    efficiencies='h2:3.3 h2o:21.0 co2:5.0 co:2.0')

# Reaction 32
reaction('h2 + oh <=> h2o + h', [1.170000e+09, 1.3, 3626.0])

# Reaction 33
reaction('ho2 + ho2 <=> h2o2 + o2', [3.000000e+12, 0.0, 0.0])

# Reaction 34
reaction('ch2o + oh <=> hco + h2o', [5.563000e+10, 1.095, -76.517])

# Reaction 35
reaction('ch2o + ho2 <=> hco + h2o2', [3.000000e+12, 0.0, 8000.0])

# Reaction 36
reaction('hco + o2 <=> ho2 + co', [3.300000e+13, -0.4, 0.0])

# Reaction 37
three_body_reaction('hco + M <=> h + co + M', [1.591000e+18, 0.95, 56712.329])

# Reaction 38
reaction('ch3 + ch3o <=> ch4 + ch2o', [4.300000e+14, 0.0, 0.0])

# Reaction 39
reaction('c2h4 + oh <=> ch2o + ch3', [6.000000e+13, 0.0, 960.0])

# Reaction 40
reaction('c2h4 + oh <=> c2h3 + h2o', [8.020000e+13, 0.0, 5955.0])

# Reaction 41
reaction('c2h3 + o2 <=> ch2o + hco', [4.000000e+12, 0.0, -250.0])

# Reaction 42
reaction('c2h3 + hco <=> c2h4 + co', [6.034000e+13, 0.0, 0.0])

# Reaction 43
reaction('c2h5 + o2 <=> c2h4 + ho2', [2.000000e+10, 0.0, -2200.0])

# Reaction 44
reaction('ch4 + o2 <=> ch3 + ho2', [7.900000e+13, 0.0, 56000.0])

# Reaction 45
reaction('oh + ho2 <=> h2o + o2', [7.500000e+12, 0.0, 0.0])

# Reaction 46
reaction('ch3 + o2 <=> ch2o + oh', [3.800000e+11, 0.0, 9000.0])

# Reaction 47
reaction('ch4 + h <=> ch3 + h2', [6.600000e+08, 1.6, 10840.0])

# Reaction 48
reaction('ch4 + oh <=> ch3 + h2o', [1.600000e+06, 2.1, 2460.0])

# Reaction 49
reaction('ch4 + o <=> ch3 + oh', [1.020000e+09, 1.5, 8604.0])

# Reaction 50
reaction('ch4 + ho2 <=> ch3 + h2o2', [9.000000e+11, 0.0, 18700.0])

# Reaction 51
reaction('ch4 + ch2 <=> ch3 + ch3', [4.000000e+12, 0.0, -570.0])

# Reaction 52
reaction('c3h6 <=> c2h3 + ch3', [3.150000e+15, 0.0, 85500.0])
